* PSpice Model Editor - Version 16.6.0

*$
.model Mbreakn NMOS VTO=2 KP=2.4m W=1 L=1
*$
